-------------------------------------------------------
          Amber 24 PMEMD                              2024
          -------------------------------------------------------

  [-O]verwriting output

File Assignments:

 Here is the input file:

Production Run
&cntrl
  imin=0,
  ntx=1,
  irest=0,
  pres0=1,
  taup=1.0,
  temp0=300,
  tempi=300,
  nstlim=100000,
  dt=0.002,
  ntf=2,
  ntc=2,
  ntpr=10000,
  ntwx=10000,
  ntwr=10000,
  cut=10,
  ntb=2,
  ntp=1,
  ntt=3,
  gamma_ln=3.0,
  ig=-1,
  iwrap=1,
  ntr=0,
/

Note: ig = -1. Setting random seed to   317647 based on wallclock time in
      microseconds.

--------------------------------------------------------------------------------
   1.  RESOURCE   USE:
--------------------------------------------------------------------------------

 getting box info from netcdf restart file
 NATOM  =   34089 NTYPES =      30 NBONH =   32514 MBONA  =    1599
 NTHETH =    3811 MTHETA =    2171 NPHIH =    7505 MPHIA  =    6936
 NHPARM =       0 NPARM  =       0 NNB   =   59156 NRES   =   10490
 NBONA  =    1599 NTHETA =    2171 NPHIA =    6936 NUMBND =      93
 NUMANG =     208 NPTRA  =     225 NATYP =      53 NPHB   =       0
 IFBOX  =       1 NMXRS  =      94 IFCAP =       0 NEXTRA =       0
 NCOPY  =       0

     BOX TYPE: RECTILINEAR

--------------------------------------------------------------------------------
   2.  CONTROL  DATA  FOR  THE  RUN
--------------------------------------------------------------------------------

default_name

General flags:
     imin    =       0, nmropt  =       0

Nature and format of input:
     ntx     =       1, irest   =       0, ntrx    =       1

Nature and format of output:
     ntxo    =       2, ntpr    =   10000, ntrx    =       1, ntwr    =   10000
     iwrap   =       1, ntwx    =   10000, ntwv    =       0, ntwe    =       0
     ioutfm  =       1, ntwprt  =       0, idecomp =       0, rbornstat=      0

Potential function:
     ntf     =       2, ntb     =       2, igb     =       0, nsnb    =      25
     ipol    =       0, gbsa    =       0, iesp    =       0
     dielc   =   1.00000, cut     =  10.00000, intdiel =   1.00000

Frozen or restrained atoms:
     ibelly  =       0, ntr     =       0

Molecular dynamics:
     nstlim  =    100000, nscm    =      1000, nrespa  =         1
     t       =   0.00000, dt      =   0.00200, vlimit  =  -1.00000

Langevin dynamics temperature regulation:
     ig      =  317647
     temp0   = 300.00000, tempi   = 300.00000, gamma_ln=   3.00000

Pressure regulation:
     ntp     =       1
     pres0   =   1.00000, comp    =  44.60000, taup    =   1.00000

SHAKE:
     ntc     =       2, jfastw  =       0
     tol     =   0.00001

Ewald parameters:
     verbose =       0, ew_type =       0, nbflag  =       1, use_pme =       1
     vdwmeth =       1, eedmeth =       1, netfrc  =       1
     Box X =   57.967   Box Y =   73.112   Box Z =   80.583
     Alpha =   90.000   Beta  =   90.000   Gamma =   90.000
     NFFT1 =   64       NFFT2 =   80       NFFT3 =   84
     Cutoff=   10.000   Tol   =0.100E-04
     Ewald Coefficient =  0.27511
     Interpolation order =    4

--------------------------------------------------------------------------------
   3.  ATOMIC COORDINATES AND VELOCITIES
--------------------------------------------------------------------------------

default_name
 begin time read from input coords =   100.000 ps

 Number of triangulated 3-point waters found:    10281

     Sum of charges from parm topology file =  -0.00399709
     Forcing neutrality...

--------------------------------------------------------------------------------
   4.  RESULTS
 NSTEP =        0   TIME(PS) =       0.000  TEMP(K) =   440.17  PRESS =    99.3
 Etot   =    -72370.8622  EKtot   =     30506.6914  EPtot      =   -102877.5536
 BOND   =       593.4925  ANGLE   =      1638.0091  DIHED      =      2559.3161
 1-4 NB =       718.4079  1-4 EEL =      8335.5771  VDWAALS    =     12842.2532
 EELEC  =   -129564.6094  EHBOND  =         0.0000  RESTRAINT  =         0.0000
 EKCMT  =      9185.3199  VIRIAL  =      8453.1773  VOLUME     =    341516.4063
                                                    Density    =         1.0102
 ------------------------------------------------------------------------------

      A V E R A G E S   O V E R      10 S T E P S

 NSTEP =   100000   TIME(PS) =     200.000  TEMP(K) =   300.55  PRESS =    14.5
 Etot   =    -82248.0467  EKtot   =     20830.2729  EPtot      =   -103078.3196
 BOND   =       589.5040  ANGLE   =      1634.8522  DIHED      =      2531.2826
 1-4 NB =       707.2580  1-4 EEL =      8329.5796  VDWAALS    =     12732.6686
 EELEC  =   -129603.4645  EHBOND  =         0.0000  RESTRAINT  =         0.0000
 EKCMT  =      9241.1903  VIRIAL  =      9135.3594  VOLUME     =    341214.5922
                                                    Density    =         1.0111
 ------------------------------------------------------------------------------

      R M S  F L U C T U A T I O N S

 NSTEP =   100000   TIME(PS) =     200.000  TEMP(K) =     1.55  PRESS =   119.3
 Etot   =       243.9837  EKtot   =       107.7570  EPtot      =       180.9098
 BOND   =        22.8974  ANGLE   =        35.9016  DIHED      =        21.0077
 1-4 NB =        10.8001  1-4 EEL =        21.6148  VDWAALS    =       112.4063
 EELEC  =       207.5015  EHBOND  =         0.0000  RESTRAINT  =         0.0000
 EKCMT  =        77.8361  VIRIAL  =       853.5531  VOLUME     =       673.8845
                                                    Density    =         0.0020
 ------------------------------------------------------------------------------
