-------------------------------------------------------
          Amber 24 PMEMD                              2024
          -------------------------------------------------------

  [-O]verwriting output

File Assignments:

 Here is the input file:

NPT Equilibration
&cntrl
  imin=0,
  ntx=1,
  irest=0,
  pres0=1,
  taup=1.0,
  temp0=300,
  tempi=300,
  nstlim=50000,
  dt=0.002,
  ntf=2,
  ntc=2,
  ntpr=10000,
  ntwx=10000,
  ntwr=10000,
  cut=10,
  ntb=2,
  ntp=1,
  ntt=3,
  gamma_ln=3.0,
  ig=-1,
  iwrap=1,
  ntr=0,
/

Note: ig = -1. Setting random seed to   861040 based on wallclock time in
      microseconds.

--------------------------------------------------------------------------------
   1.  RESOURCE   USE:
--------------------------------------------------------------------------------

 getting box info from netcdf restart file
 NATOM  =   34089 NTYPES =      30 NBONH =   32514 MBONA  =    1599
 NTHETH =    3811 MTHETA =    2171 NPHIH =    7505 MPHIA  =    6936
 NHPARM =       0 NPARM  =       0 NNB   =   59156 NRES   =   10490
 NBONA  =    1599 NTHETA =    2171 NPHIA =    6936 NUMBND =      93
 NUMANG =     208 NPTRA  =     225 NATYP =      53 NPHB   =       0
 IFBOX  =       1 NMXRS  =      94 IFCAP =       0 NEXTRA =       0
 NCOPY  =       0

     BOX TYPE: RECTILINEAR

--------------------------------------------------------------------------------
   2.  CONTROL  DATA  FOR  THE  RUN
--------------------------------------------------------------------------------

default_name

General flags:
     imin    =       0, nmropt  =       0

Nature and format of input:
     ntx     =       1, irest   =       0, ntrx    =       1

Nature and format of output:
     ntxo    =       2, ntpr    =   10000, ntrx    =       1, ntwr    =   10000
     iwrap   =       1, ntwx    =   10000, ntwv    =       0, ntwe    =       0
     ioutfm  =       1, ntwprt  =       0, idecomp =       0, rbornstat=      0

Potential function:
     ntf     =       2, ntb     =       2, igb     =       0, nsnb    =      25
     ipol    =       0, gbsa    =       0, iesp    =       0
     dielc   =   1.00000, cut     =  10.00000, intdiel =   1.00000

Frozen or restrained atoms:
     ibelly  =       0, ntr     =       0

Molecular dynamics:
     nstlim  =     50000, nscm    =      1000, nrespa  =         1
     t       =   0.00000, dt      =   0.00200, vlimit  =  -1.00000

Langevin dynamics temperature regulation:
     ig      =  861040
     temp0   = 300.00000, tempi   = 300.00000, gamma_ln=   3.00000

Pressure regulation:
     ntp     =       1
     pres0   =   1.00000, comp    =  44.60000, taup    =   1.00000

SHAKE:
     ntc     =       2, jfastw  =       0
     tol     =   0.00001

Ewald parameters:
     verbose =       0, ew_type =       0, nbflag  =       1, use_pme =       1
     vdwmeth =       1, eedmeth =       1, netfrc  =       1
     Box X =   58.566   Box Y =   73.868   Box Z =   81.416
     Alpha =   90.000   Beta  =   90.000   Gamma =   90.000
     NFFT1 =   64       NFFT2 =   80       NFFT3 =   84
     Cutoff=   10.000   Tol   =0.100E-04
     Ewald Coefficient =  0.27511
     Interpolation order =    4

--------------------------------------------------------------------------------
   3.  ATOMIC COORDINATES AND VELOCITIES
--------------------------------------------------------------------------------

default_name
 begin time read from input coords =    24.000 ps

 Number of triangulated 3-point waters found:    10281

     Sum of charges from parm topology file =  -0.00399709
     Forcing neutrality...

--------------------------------------------------------------------------------
   4.  RESULTS
 NSTEP =        0   TIME(PS) =       0.000  TEMP(K) =   442.97  PRESS =  -458.7
 Etot   =    -72085.3102  EKtot   =     30700.6225  EPtot      =   -102785.9326
 BOND   =       568.5858  ANGLE   =      1665.9549  DIHED      =      2532.3852
 1-4 NB =       696.6824  1-4 EEL =      8348.6085  VDWAALS    =     12467.0472
 EELEC  =   -129065.1967  EHBOND  =         0.0000  RESTRAINT  =         0.0000
 EKCMT  =      9214.8000  VIRIAL  =     12702.8851  VOLUME     =    352216.4530
                                                    Density    =         0.9795
 ------------------------------------------------------------------------------

      A V E R A G E S   O V E R       5 S T E P S

 NSTEP =    50000   TIME(PS) =     100.000  TEMP(K) =   299.91  PRESS =   -69.9
 Etot   =    -82121.3891  EKtot   =     20785.8008  EPtot      =   -102907.1898
 BOND   =       601.4402  ANGLE   =      1677.2512  DIHED      =      2533.6348
 1-4 NB =       704.1744  1-4 EEL =      8320.2708  VDWAALS    =     12682.8537
 EELEC  =   -129426.8149  EHBOND  =         0.0000  RESTRAINT  =         0.0000
 EKCMT  =      9244.8474  VIRIAL  =      9760.2914  VOLUME     =    341446.1228
                                                    Density    =         1.0104
 ------------------------------------------------------------------------------

      R M S  F L U C T U A T I O N S

 NSTEP =    50000   TIME(PS) =     100.000  TEMP(K) =     1.56  PRESS =   127.3
 Etot   =        64.7775  EKtot   =       108.2361  EPtot      =       150.0899
 BOND   =        17.2646  ANGLE   =        23.7111  DIHED      =        18.9912
 1-4 NB =         9.5993  1-4 EEL =        11.0202  VDWAALS    =       113.3019
 EELEC  =       129.9485  EHBOND  =         0.0000  RESTRAINT  =         0.0000
 EKCMT  =        95.0518  VIRIAL  =       940.0347  VOLUME     =       349.7677
                                                    Density    =         0.0010
 ------------------------------------------------------------------------------
