-------------------------------------------------------
          Amber 24 PMEMD                              2024
          -------------------------------------------------------

  [-O]verwriting output

File Assignments:

 Here is the input file:

NPT Equilibration
&cntrl
  imin=0,
  ntx=1,
  irest=0,
  pres0=1,
  taup=1.0,
  temp0=300,
  tempi=300,
  nstlim=50000,
  dt=0.002,
  ntf=2,
  ntc=2,
  ntpr=10000,
  ntwx=10000,
  ntwr=10000,
  cut=10,
  ntb=2,
  ntp=1,
  ntt=3,
  gamma_ln=3.0,
  ig=-1,
  iwrap=1,
  ntr=0,
/

Note: ig = -1. Setting random seed to    38259 based on wallclock time in
      microseconds.

--------------------------------------------------------------------------------
   1.  RESOURCE   USE:
--------------------------------------------------------------------------------

 getting box info from netcdf restart file
 NATOM  =   30070 NTYPES =      30 NBONH =   28507 MBONA  =    1587
 NTHETH =    3778 MTHETA =    2153 NPHIH =    7436 MPHIA  =    6904
 NHPARM =       0 NPARM  =       0 NNB   =   53662 NRES   =    9157
 NBONA  =    1587 NTHETA =    2153 NPHIA =    6904 NUMBND =      88
 NUMANG =     190 NPTRA  =     224 NATYP =      52 NPHB   =       0
 IFBOX  =       1 NMXRS  =      70 IFCAP =       0 NEXTRA =       0
 NCOPY  =       0

     BOX TYPE: RECTILINEAR

--------------------------------------------------------------------------------
   2.  CONTROL  DATA  FOR  THE  RUN
--------------------------------------------------------------------------------

default_name

General flags:
     imin    =       0, nmropt  =       0

Nature and format of input:
     ntx     =       1, irest   =       0, ntrx    =       1

Nature and format of output:
     ntxo    =       2, ntpr    =   10000, ntrx    =       1, ntwr    =   10000
     iwrap   =       1, ntwx    =   10000, ntwv    =       0, ntwe    =       0
     ioutfm  =       1, ntwprt  =       0, idecomp =       0, rbornstat=      0

Potential function:
     ntf     =       2, ntb     =       2, igb     =       0, nsnb    =      25
     ipol    =       0, gbsa    =       0, iesp    =       0
     dielc   =   1.00000, cut     =  10.00000, intdiel =   1.00000

Frozen or restrained atoms:
     ibelly  =       0, ntr     =       0

Molecular dynamics:
     nstlim  =     50000, nscm    =      1000, nrespa  =         1
     t       =   0.00000, dt      =   0.00200, vlimit  =  -1.00000

Langevin dynamics temperature regulation:
     ig      =   38259
     temp0   = 300.00000, tempi   = 300.00000, gamma_ln=   3.00000

Pressure regulation:
     ntp     =       1
     pres0   =   1.00000, comp    =  44.60000, taup    =   1.00000

SHAKE:
     ntc     =       2, jfastw  =       0
     tol     =   0.00001

Ewald parameters:
     verbose =       0, ew_type =       0, nbflag  =       1, use_pme =       1
     vdwmeth =       1, eedmeth =       1, netfrc  =       1
     Box X =   64.565   Box Y =   59.876   Box Z =   77.813
     Alpha =   90.000   Beta  =   90.000   Gamma =   90.000
     NFFT1 =   64       NFFT2 =   64       NFFT3 =   80
     Cutoff=   10.000   Tol   =0.100E-04
     Ewald Coefficient =  0.27511
     Interpolation order =    4

--------------------------------------------------------------------------------
   3.  ATOMIC COORDINATES AND VELOCITIES
--------------------------------------------------------------------------------

default_name
 begin time read from input coords =   100.000 ps

 Number of triangulated 3-point waters found:     8950

     Sum of charges from parm topology file =  -0.00299810
     Forcing neutrality...

--------------------------------------------------------------------------------
   4.  RESULTS
 NSTEP =        0   TIME(PS) =       0.000  TEMP(K) =   440.24  PRESS =   151.7
 Etot   =    -63228.6454  EKtot   =     26990.4111  EPtot      =    -90219.0564
 BOND   =       590.4997  ANGLE   =      1655.2995  DIHED      =      2528.4312
 1-4 NB =       704.0751  1-4 EEL =      8121.0472  VDWAALS    =     10959.5011
 EELEC  =   -114777.9103  EHBOND  =         0.0000  RESTRAINT  =         0.0000
 EKCMT  =      8023.6836  VIRIAL  =      7038.4574  VOLUME     =    300815.0249
                                                    Density    =         1.0135
 ------------------------------------------------------------------------------

      A V E R A G E S   O V E R       5 S T E P S

 NSTEP =    50000   TIME(PS) =     100.000  TEMP(K) =   299.45  PRESS =   -28.6
 Etot   =    -71826.3943  EKtot   =     18358.3582  EPtot      =    -90184.7525
 BOND   =       614.1977  ANGLE   =      1663.0311  DIHED      =      2539.9126
 1-4 NB =       701.7859  1-4 EEL =      8121.0425  VDWAALS    =     10799.9200
 EELEC  =   -114624.6422  EHBOND  =         0.0000  RESTRAINT  =         0.0000
 EKCMT  =      8008.7396  VIRIAL  =      8194.2220  VOLUME     =    300683.0328
                                                    Density    =         1.0139
 ------------------------------------------------------------------------------

      R M S  F L U C T U A T I O N S

 NSTEP =    50000   TIME(PS) =     100.000  TEMP(K) =     1.17  PRESS =    55.6
 Etot   =       234.0214  EKtot   =        71.9122  EPtot      =       168.5494
 BOND   =        14.9247  ANGLE   =        24.7552  DIHED      =        10.4714
 1-4 NB =         9.6263  1-4 EEL =        24.2949  VDWAALS    =       123.7962
 EELEC  =       246.7558  EHBOND  =         0.0000  RESTRAINT  =         0.0000
 EKCMT  =        58.0778  VIRIAL  =       332.3443  VOLUME     =       254.6171
                                                    Density    =         0.0009
 ------------------------------------------------------------------------------
