-------------------------------------------------------
          Amber 24 PMEMD                              2024
          -------------------------------------------------------

  [-O]verwriting output

File Assignments:

 Here is the input file:

Production Run
&cntrl
  imin=0,
  ntx=1,
  irest=0,
  pres0=1,
  taup=1.0,
  temp0=300,
  tempi=300,
  nstlim=100000,
  dt=0.002,
  ntf=2,
  ntc=2,
  ntpr=10000,
  ntwx=10000,
  ntwr=10000,
  cut=10,
  ntb=2,
  ntp=1,
  ntt=3,
  gamma_ln=3.0,
  ig=-1,
  iwrap=1,
  ntr=0,
/

Note: ig = -1. Setting random seed to   873599 based on wallclock time in
      microseconds.

--------------------------------------------------------------------------------
   1.  RESOURCE   USE:
--------------------------------------------------------------------------------

 getting box info from netcdf restart file
 NATOM  =   30070 NTYPES =      30 NBONH =   28507 MBONA  =    1587
 NTHETH =    3778 MTHETA =    2153 NPHIH =    7436 MPHIA  =    6904
 NHPARM =       0 NPARM  =       0 NNB   =   53662 NRES   =    9157
 NBONA  =    1587 NTHETA =    2153 NPHIA =    6904 NUMBND =      88
 NUMANG =     190 NPTRA  =     224 NATYP =      52 NPHB   =       0
 IFBOX  =       1 NMXRS  =      70 IFCAP =       0 NEXTRA =       0
 NCOPY  =       0

     BOX TYPE: RECTILINEAR

--------------------------------------------------------------------------------
   2.  CONTROL  DATA  FOR  THE  RUN
--------------------------------------------------------------------------------

default_name

General flags:
     imin    =       0, nmropt  =       0

Nature and format of input:
     ntx     =       1, irest   =       0, ntrx    =       1

Nature and format of output:
     ntxo    =       2, ntpr    =   10000, ntrx    =       1, ntwr    =   10000
     iwrap   =       1, ntwx    =   10000, ntwv    =       0, ntwe    =       0
     ioutfm  =       1, ntwprt  =       0, idecomp =       0, rbornstat=      0

Potential function:
     ntf     =       2, ntb     =       2, igb     =       0, nsnb    =      25
     ipol    =       0, gbsa    =       0, iesp    =       0
     dielc   =   1.00000, cut     =  10.00000, intdiel =   1.00000

Frozen or restrained atoms:
     ibelly  =       0, ntr     =       0

Molecular dynamics:
     nstlim  =    100000, nscm    =      1000, nrespa  =         1
     t       =   0.00000, dt      =   0.00200, vlimit  =  -1.00000

Langevin dynamics temperature regulation:
     ig      =  873599
     temp0   = 300.00000, tempi   = 300.00000, gamma_ln=   3.00000

Pressure regulation:
     ntp     =       1
     pres0   =   1.00000, comp    =  44.60000, taup    =   1.00000

SHAKE:
     ntc     =       2, jfastw  =       0
     tol     =   0.00001

Ewald parameters:
     verbose =       0, ew_type =       0, nbflag  =       1, use_pme =       1
     vdwmeth =       1, eedmeth =       1, netfrc  =       1
     Box X =   64.540   Box Y =   59.852   Box Z =   77.782
     Alpha =   90.000   Beta  =   90.000   Gamma =   90.000
     NFFT1 =   64       NFFT2 =   64       NFFT3 =   80
     Cutoff=   10.000   Tol   =0.100E-04
     Ewald Coefficient =  0.27511
     Interpolation order =    4

--------------------------------------------------------------------------------
   3.  ATOMIC COORDINATES AND VELOCITIES
--------------------------------------------------------------------------------

default_name
 begin time read from input coords =   100.000 ps

 Number of triangulated 3-point waters found:     8950

     Sum of charges from parm topology file =  -0.00299810
     Forcing neutrality...

--------------------------------------------------------------------------------
   4.  RESULTS
 NSTEP =        0   TIME(PS) =       0.000  TEMP(K) =   437.38  PRESS =   -30.9
 Etot   =    -63431.2404  EKtot   =     26814.5636  EPtot      =    -90245.8040
 BOND   =       637.7182  ANGLE   =      1678.5601  DIHED      =      2548.0138
 1-4 NB =       696.2513  1-4 EEL =      8107.5175  VDWAALS    =     10811.6980
 EELEC  =   -114725.5628  EHBOND  =         0.0000  RESTRAINT  =         0.0000
 EKCMT  =      7943.4481  VIRIAL  =      8144.0768  VOLUME     =    300458.6592
                                                    Density    =         1.0147
 ------------------------------------------------------------------------------

      A V E R A G E S   O V E R      10 S T E P S

 NSTEP =   100000   TIME(PS) =     200.000  TEMP(K) =   299.54  PRESS =   -45.8
 Etot   =    -71944.2074  EKtot   =     18364.4430  EPtot      =    -90308.6504
 BOND   =       595.4293  ANGLE   =      1644.1041  DIHED      =      2538.6070
 1-4 NB =       704.9488  1-4 EEL =      8140.0991  VDWAALS    =     10879.0087
 EELEC  =   -114810.8473  EHBOND  =         0.0000  RESTRAINT  =         0.0000
 EKCMT  =      8004.6815  VIRIAL  =      8302.1501  VOLUME     =    300641.0232
                                                    Density    =         1.0140
 ------------------------------------------------------------------------------

      R M S  F L U C T U A T I O N S

 NSTEP =   100000   TIME(PS) =     200.000  TEMP(K) =     1.34  PRESS =   123.8
 Etot   =       149.6675  EKtot   =        81.9354  EPtot      =        91.3221
 BOND   =        18.8490  ANGLE   =        34.8812  DIHED      =        13.4145
 1-4 NB =         9.1901  1-4 EEL =        19.7959  VDWAALS    =       103.7007
 EELEC  =       189.3747  EHBOND  =         0.0000  RESTRAINT  =         0.0000
 EKCMT  =        89.7442  VIRIAL  =       838.0303  VOLUME     =       432.3906
                                                    Density    =         0.0015
 ------------------------------------------------------------------------------
