-------------------------------------------------------
          Amber 24 PMEMD                              2024
          -------------------------------------------------------

  [-O]verwriting output

File Assignments:

 Here is the input file:

Production Run
&cntrl
  imin=0,
  ntx=1,
  irest=0,
  pres0=1,
  taup=1.0,
  temp0=300,
  tempi=300,
  nstlim=100000,
  dt=0.002,
  ntf=2,
  ntc=2,
  ntpr=10000,
  ntwx=10000,
  ntwr=10000,
  cut=10,
  ntb=2,
  ntp=1,
  ntt=3,
  gamma_ln=3.0,
  ig=-1,
  iwrap=1,
  ntr=0,
/

Note: ig = -1. Setting random seed to   231124 based on wallclock time in
      microseconds.

--------------------------------------------------------------------------------
   1.  RESOURCE   USE:
--------------------------------------------------------------------------------

 getting box info from netcdf restart file
 NATOM  =   39654 NTYPES =      27 NBONH =   37225 MBONA  =    2489
 NTHETH =    5627 MTHETA =    3381 NPHIH =   11219 MPHIA  =   10616
 NHPARM =       0 NPARM  =       0 NNB   =   73535 NRES   =   11890
 NBONA  =    2489 NTHETA =    3381 NPHIA =   10616 NUMBND =      84
 NUMANG =     178 NPTRA  =     203 NATYP =      50 NPHB   =       0
 IFBOX  =       1 NMXRS  =      38 IFCAP =       0 NEXTRA =       0
 NCOPY  =       0

     BOX TYPE: RECTILINEAR

--------------------------------------------------------------------------------
   2.  CONTROL  DATA  FOR  THE  RUN
--------------------------------------------------------------------------------

default_name

General flags:
     imin    =       0, nmropt  =       0

Nature and format of input:
     ntx     =       1, irest   =       0, ntrx    =       1

Nature and format of output:
     ntxo    =       2, ntpr    =   10000, ntrx    =       1, ntwr    =   10000
     iwrap   =       1, ntwx    =   10000, ntwv    =       0, ntwe    =       0
     ioutfm  =       1, ntwprt  =       0, idecomp =       0, rbornstat=      0

Potential function:
     ntf     =       2, ntb     =       2, igb     =       0, nsnb    =      25
     ipol    =       0, gbsa    =       0, iesp    =       0
     dielc   =   1.00000, cut     =  10.00000, intdiel =   1.00000

Frozen or restrained atoms:
     ibelly  =       0, ntr     =       0

Molecular dynamics:
     nstlim  =    100000, nscm    =      1000, nrespa  =         1
     t       =   0.00000, dt      =   0.00200, vlimit  =  -1.00000

Langevin dynamics temperature regulation:
     ig      =  231124
     temp0   = 300.00000, tempi   = 300.00000, gamma_ln=   3.00000

Pressure regulation:
     ntp     =       1
     pres0   =   1.00000, comp    =  44.60000, taup    =   1.00000

SHAKE:
     ntc     =       2, jfastw  =       0
     tol     =   0.00001

Ewald parameters:
     verbose =       0, ew_type =       0, nbflag  =       1, use_pme =       1
     vdwmeth =       1, eedmeth =       1, netfrc  =       1
     Box X =   84.360   Box Y =   61.913   Box Z =   75.637
     Alpha =   90.000   Beta  =   90.000   Gamma =   90.000
     NFFT1 =   96       NFFT2 =   64       NFFT3 =   80
     Cutoff=   10.000   Tol   =0.100E-04
     Ewald Coefficient =  0.27511
     Interpolation order =    4

--------------------------------------------------------------------------------
   3.  ATOMIC COORDINATES AND VELOCITIES
--------------------------------------------------------------------------------

default_name
 begin time read from input coords =   100.000 ps

 Number of triangulated 3-point waters found:    11585

     Sum of charges from parm topology file =  -0.00100012
     Forcing neutrality...

--------------------------------------------------------------------------------
   4.  RESULTS
 NSTEP =        0   TIME(PS) =       0.000  TEMP(K) =   434.82  PRESS =  -174.0
 Etot   =    -82770.2217  EKtot   =     35313.3526  EPtot      =   -118083.5743
 BOND   =       950.5569  ANGLE   =      2588.2225  DIHED      =      3855.0789
 1-4 NB =      1139.9330  1-4 EEL =     11963.6633  VDWAALS    =     13188.3600
 EELEC  =   -151769.3888  EHBOND  =         0.0000  RESTRAINT  =         0.0000
 EKCMT  =     10305.8334  VIRIAL  =     11790.2397  VOLUME     =    395048.0474
                                                    Density    =         1.0222
 ------------------------------------------------------------------------------

      A V E R A G E S   O V E R      10 S T E P S

 NSTEP =   100000   TIME(PS) =     200.000  TEMP(K) =   299.94  PRESS =    -3.4
 Etot   =    -94057.4085  EKtot   =     24359.4719  EPtot      =   -118416.8804
 BOND   =       937.1884  ANGLE   =      2622.4234  DIHED      =      3852.6526
 1-4 NB =      1130.2232  1-4 EEL =     11952.6684  VDWAALS    =     13482.7095
 EELEC  =   -152394.7457  EHBOND  =         0.0000  RESTRAINT  =         0.0000
 EKCMT  =     10404.8544  VIRIAL  =     10433.4059  VOLUME     =    395420.1134
                                                    Density    =         1.0212
 ------------------------------------------------------------------------------

      R M S  F L U C T U A T I O N S

 NSTEP =   100000   TIME(PS) =     200.000  TEMP(K) =     1.11  PRESS =    71.5
 Etot   =       214.7464  EKtot   =        89.9593  EPtot      =       165.2845
 BOND   =        21.6367  ANGLE   =        33.8078  DIHED      =        19.4669
 1-4 NB =         9.1375  1-4 EEL =        20.2637  VDWAALS    =       113.9059
 EELEC  =       238.9581  EHBOND  =         0.0000  RESTRAINT  =         0.0000
 EKCMT  =        68.5303  VIRIAL  =       593.4881  VOLUME     =       472.6410
                                                    Density    =         0.0012
 ------------------------------------------------------------------------------
