-------------------------------------------------------
          Amber 24 PMEMD                              2024
          -------------------------------------------------------

  [-O]verwriting output

File Assignments:

 Here is the input file:

NPT Equilibration
&cntrl
  imin=0,
  ntx=1,
  irest=0,
  pres0=1,
  taup=1.0,
  temp0=300,
  tempi=300,
  nstlim=50000,
  dt=0.002,
  ntf=2,
  ntc=2,
  ntpr=10000,
  ntwx=10000,
  ntwr=10000,
  cut=10,
  ntb=2,
  ntp=1,
  ntt=3,
  gamma_ln=3.0,
  ig=-1,
  iwrap=1,
  ntr=0,
/

Note: ig = -1. Setting random seed to   188569 based on wallclock time in
      microseconds.

--------------------------------------------------------------------------------
   1.  RESOURCE   USE:
--------------------------------------------------------------------------------

 getting box info from netcdf restart file
 NATOM  =   39654 NTYPES =      27 NBONH =   37225 MBONA  =    2489
 NTHETH =    5627 MTHETA =    3381 NPHIH =   11219 MPHIA  =   10616
 NHPARM =       0 NPARM  =       0 NNB   =   73535 NRES   =   11890
 NBONA  =    2489 NTHETA =    3381 NPHIA =   10616 NUMBND =      84
 NUMANG =     178 NPTRA  =     203 NATYP =      50 NPHB   =       0
 IFBOX  =       1 NMXRS  =      38 IFCAP =       0 NEXTRA =       0
 NCOPY  =       0

     BOX TYPE: RECTILINEAR

--------------------------------------------------------------------------------
   2.  CONTROL  DATA  FOR  THE  RUN
--------------------------------------------------------------------------------

default_name

General flags:
     imin    =       0, nmropt  =       0

Nature and format of input:
     ntx     =       1, irest   =       0, ntrx    =       1

Nature and format of output:
     ntxo    =       2, ntpr    =   10000, ntrx    =       1, ntwr    =   10000
     iwrap   =       1, ntwx    =   10000, ntwv    =       0, ntwe    =       0
     ioutfm  =       1, ntwprt  =       0, idecomp =       0, rbornstat=      0

Potential function:
     ntf     =       2, ntb     =       2, igb     =       0, nsnb    =      25
     ipol    =       0, gbsa    =       0, iesp    =       0
     dielc   =   1.00000, cut     =  10.00000, intdiel =   1.00000

Frozen or restrained atoms:
     ibelly  =       0, ntr     =       0

Molecular dynamics:
     nstlim  =     50000, nscm    =      1000, nrespa  =         1
     t       =   0.00000, dt      =   0.00200, vlimit  =  -1.00000

Langevin dynamics temperature regulation:
     ig      =  188569
     temp0   = 300.00000, tempi   = 300.00000, gamma_ln=   3.00000

Pressure regulation:
     ntp     =       1
     pres0   =   1.00000, comp    =  44.60000, taup    =   1.00000

SHAKE:
     ntc     =       2, jfastw  =       0
     tol     =   0.00001

Ewald parameters:
     verbose =       0, ew_type =       0, nbflag  =       1, use_pme =       1
     vdwmeth =       1, eedmeth =       1, netfrc  =       1
     Box X =   85.873   Box Y =   63.024   Box Z =   76.994
     Alpha =   90.000   Beta  =   90.000   Gamma =   90.000
     NFFT1 =   96       NFFT2 =   64       NFFT3 =   80
     Cutoff=   10.000   Tol   =0.100E-04
     Ewald Coefficient =  0.27511
     Interpolation order =    4

--------------------------------------------------------------------------------
   3.  ATOMIC COORDINATES AND VELOCITIES
--------------------------------------------------------------------------------

default_name
 begin time read from input coords =    20.000 ps

 Number of triangulated 3-point waters found:    11585

     Sum of charges from parm topology file =  -0.00100012
     Forcing neutrality...

--------------------------------------------------------------------------------
   4.  RESULTS
 NSTEP =        0   TIME(PS) =       0.000  TEMP(K) =   436.81  PRESS =  -118.2
 Etot   =    -81844.5427  EKtot   =     35474.5249  EPtot      =   -117319.0676
 BOND   =       932.7390  ANGLE   =      2598.8804  DIHED      =      3849.4918
 1-4 NB =      1135.7455  1-4 EEL =     11936.6250  VDWAALS    =     13405.3440
 EELEC  =   -151177.8933  EHBOND  =         0.0000  RESTRAINT  =         0.0000
 EKCMT  =     10352.3104  VIRIAL  =     11415.7093  VOLUME     =    416694.2513
                                                    Density    =         0.9691
 ------------------------------------------------------------------------------

      A V E R A G E S   O V E R       5 S T E P S

 NSTEP =    50000   TIME(PS) =     100.000  TEMP(K) =   299.66  PRESS =   -42.1
 Etot   =    -93831.9054  EKtot   =     24336.6406  EPtot      =   -118168.5460
 BOND   =       947.6615  ANGLE   =      2632.5635  DIHED      =      3861.8414
 1-4 NB =      1140.0501  1-4 EEL =     11943.8949  VDWAALS    =     13426.8559
 EELEC  =   -152121.4133  EHBOND  =         0.0000  RESTRAINT  =         0.0000
 EKCMT  =     10395.0558  VIRIAL  =     10754.8397  VOLUME     =    395876.6249
                                                    Density    =         1.0200
 ------------------------------------------------------------------------------

      R M S  F L U C T U A T I O N S

 NSTEP =    50000   TIME(PS) =     100.000  TEMP(K) =     0.69  PRESS =    69.6
 Etot   =       193.0357  EKtot   =        56.3324  EPtot      =       138.0896
 BOND   =        15.4767  ANGLE   =        52.9350  DIHED      =        18.8455
 1-4 NB =         6.3430  1-4 EEL =        46.9253  VDWAALS    =       127.1060
 EELEC  =       285.5669  EHBOND  =         0.0000  RESTRAINT  =         0.0000
 EKCMT  =        26.0146  VIRIAL  =       593.6911  VOLUME     =       675.1067
                                                    Density    =         0.0017
 ------------------------------------------------------------------------------
